# File generated by Flopy version 3.3.5 on 12/23/2023 at 15:54:39.
BEGIN options
  COMPLEXITY  simple
END options

