# File generated by Flopy version 3.3.5 on 12/23/2023 at 15:54:39.
BEGIN options
END options

BEGIN packages
  DIS6  .\mf6lake.dis  dis
  IC6  .\mf6lake.ic  ic
  NPF6  .\mf6lake.npf  npf
  CHD6  .\mf6lake.chd  chd
  OC6  .\mf6lake.oc  oc
END packages

