# File generated by Flopy version 3.3.5 on 12/23/2023 at 15:54:39.
BEGIN options
  BUDGET  FILEOUT  mf6lake.cbb
  HEAD  FILEOUT  mf6lake.hds
END options

BEGIN period  1
  SAVE  HEAD  ALL
  SAVE  BUDGET  ALL
  PRINT  HEAD  LAST
END period  1

